*SRC=B260A;DI_B260A;Diodes;Si;  60.0V  2.00A  1.00ns   Diodes Inc. 
.MODEL DI_B260A D  ( IS=6.08u RS=14.9m BV=60.0 IBV=500u
+ CJO=370p  M=0.333 N=1.55 TT=1.44n )